Structure11
                    3D
 Schrodinger Suite 2023-4.
  3  2  0  0  1  0            999 V2000
   -1.3203    1.1078    1.9557 O   0  0  0  0  0  0
   -0.9499    2.5210    1.4829 Si  0  0  0  0  0  0
    0.5208    2.5880    1.0462 O   0  0  0  0  0  0
  1  2  2  0  0  0
  2  3  2  0  0  0
M  END
> <s_m_entry_id>
11

> <s_m_entry_name>
Structure11

$$$$
Structure12
                    3D
 Schrodinger Suite 2023-4.
 34 36  0  0  1  0            999 V2000
   -4.3797   -0.0000    0.0000 C   0  0  0  0  0  0
   -3.6847   -1.2036    0.0000 C   0  0  0  0  0  0
   -2.2949   -1.2036    0.0000 C   0  0  0  0  0  0
   -1.6000   -0.0000   -0.0000 C   0  0  0  0  0  0
   -0.0000   -0.0000   -0.0000 B   0  0  0  0  0  0
    0.8000    0.0000   -1.3856 C   0  0  0  0  0  0
    1.1475    1.2036   -1.9875 C   0  0  0  0  0  0
    1.8424    1.2036   -3.1911 C   0  0  0  0  0  0
    2.1898    0.0000   -3.7929 C   0  0  0  0  0  0
    1.8424   -1.2036   -3.1911 C   0  0  0  0  0  0
    1.1475   -1.2036   -1.9875 C   0  0  0  0  0  0
    0.8000   -0.0000    1.3856 C   0  0  0  0  0  0
    1.1475   -1.2036    1.9875 C   0  0  0  0  0  0
    1.8424   -1.2036    3.1911 C   0  0  0  0  0  0
    2.1898   -0.0000    3.7929 C   0  0  0  0  0  0
    1.8424    1.2036    3.1911 C   0  0  0  0  0  0
    1.1475    1.2036    1.9875 C   0  0  0  0  0  0
   -2.2949    1.2036   -0.0000 C   0  0  0  0  0  0
   -3.6847    1.2036   -0.0000 C   0  0  0  0  0  0
   -5.4617   -0.0000    0.0000 H   0  0  0  0  0  0
   -4.2258   -2.1407    0.0000 H   0  0  0  0  0  0
   -1.7539   -2.1407    0.0000 H   0  0  0  0  0  0
    0.8769    2.1407   -1.5189 H   0  0  0  0  0  0
    2.1129    2.1407   -3.6596 H   0  0  0  0  0  0
    2.7309    0.0000   -4.7300 H   0  0  0  0  0  0
    2.1129   -2.1407   -3.6596 H   0  0  0  0  0  0
    0.8769   -2.1407   -1.5189 H   0  0  0  0  0  0
    0.8769   -2.1407    1.5189 H   0  0  0  0  0  0
    2.1129   -2.1407    3.6596 H   0  0  0  0  0  0
    2.7309   -0.0000    4.7300 H   0  0  0  0  0  0
    2.1129    2.1407    3.6596 H   0  0  0  0  0  0
    0.8769    2.1407    1.5189 H   0  0  0  0  0  0
   -1.7539    2.1407   -0.0000 H   0  0  0  0  0  0
   -4.2258    2.1407   -0.0000 H   0  0  0  0  0  0
  1  2  2  0  0  0
  1 19  1  0  0  0
  1 20  1  0  0  0
  2  3  1  0  0  0
  2 21  1  0  0  0
  3  4  2  0  0  0
  3 22  1  0  0  0
  4  5  1  0  0  0
  4 18  1  0  0  0
  5  6  1  0  0  0
  5 12  1  0  0  0
  6  7  2  0  0  0
  6 11  1  0  0  0
  7  8  1  0  0  0
  7 23  1  0  0  0
  8  9  2  0  0  0
  8 24  1  0  0  0
  9 10  1  0  0  0
  9 25  1  0  0  0
 10 11  2  0  0  0
 10 26  1  0  0  0
 11 27  1  0  0  0
 12 13  2  0  0  0
 12 17  1  0  0  0
 13 14  1  0  0  0
 13 28  1  0  0  0
 14 15  2  0  0  0
 14 29  1  0  0  0
 15 16  1  0  0  0
 15 30  1  0  0  0
 16 17  2  0  0  0
 16 31  1  0  0  0
 17 32  1  0  0  0
 18 19  2  0  0  0
 18 33  1  0  0  0
 19 34  1  0  0  0
M  END
> <i_f3d_flags>
0

> <b_m_subgroup_collapsed>
0

> <r_f3d_energy>
-2.37295

> <r_f3d_relative_energy>
0

> <s_m_Source_File>
ConfGenXTask_3-in-out.maegz

> <s_m_Source_Path>
/Users/panxiaolin/ConfGenXTask_3

> <s_m_entry_id>
13

> <s_m_entry_name>
Structure12

> <s_m_job_name>
ConfGenXTask_3-in

> <s_m_subgroup_title>
Structure12

> <s_m_subgroupid>
12

$$$$
